** written by FreeCAD inp file writer for CalculiX,Abaqus meshes
** highest dimension mesh elements only.

** Nodes
*Node, NSET=Nall
1, 26.99999999999, 10, 2
2, 26.99999999999, 10, 0
3, 50, 10, 2
4, 50, 10, 0
5, 50, 0, 2
6, 50, 0, 0
7, 0, 0, 2
8, 0, 0, 0
9, 0, 20, 2
10, 0, 20, 0
11, 25, 20, 2
12, 25, 20, 0
13, 25, 11.99999999999, 2
14, 25, 11.99999999999, 0
15, 25, 13.52673634749, 2
16, 25, 15.62432511623, 2
17, 25, 17.81216255811, 2
18, 23.07692307692, 20, 2
19, 21.15384615385, 20, 2
20, 19.23076923077, 20, 2
** ... 3052 like lines cut


** Volume elements
*Element, TYPE=C3D10, ELSET=Evolumes
1240, 496, 256, 267, 448, 2178, 1221, 2180, 1831, 2179, 2181
1241, 166, 358, 167, 35, 2182, 2183, 764, 759, 2184, 763
1242, 151, 342, 406, 343, 2185, 1554, 2186, 2187, 1361, 1555
1243, 133, 67, 198, 132, 2045, 858, 2188, 679, 2046, 2189
1244, 177, 45, 176, 368, 794, 790, 795, 2191, 2190, 2192
1245, 242, 435, 434, 486, 2193, 1645, 2194, 2195, 1801, 1800
1246, 66, 196, 197, 131, 850, 855, 854, 2067, 2196, 2197
1247, 391, 199, 200, 255, 2198, 865, 2199, 2200, 1037, 1036
1248, 347, 155, 411, 410, 2201, 2202, 1569, 1567, 2203, 1571
1249, 539, 336, 524, 525, 2204, 2205, 2002, 2003, 2206, 1955
1250, 498, 265, 459, 304, 2207, 2208, 1857, 2209, 1203, 2210
1251, 405, 462, 269, 406, 1731, 2211, 2212, 1556, 1729, 2213
1252, 63, 129, 386, 64, 2068, 1491, 2214, 602, 2071, 2215
1253, 133, 199, 391, 390, 2216, 2198, 1505, 1503, 2217, 1507
1254, 490, 438, 439, 246, 1812, 1657, 1813, 2219, 2218, 2220
1255, 383, 252, 444, 191, 2221, 2222, 1671, 2223, 1025, 2224
1256, 34, 100, 99, 358, 2134, 643, 2135, 2225, 1405, 1404
1257, 281, 232, 425, 477, 1214, 2226, 2228, 2229, 2227, 1774
1258, 303, 322, 304, 498, 1272, 1271, 1222, 2231, 2230, 2209
1259, 265, 303, 304, 498, 1190, 1222, 1203, 2207, 2231, 2209
** ... 1414 like lines cut

** Define element set Eall
*ELSET, ELSET=Eall
Evolumes



***********************************************************
** Element sets for materials and FEM element type (solid, shell, beam, fluid)
** written by write_element_sets_material_and_femelement_type function
*ELSET,ELSET=SolidMaterialSolid
Evolumes

***********************************************************
** Node sets for prescribed displacement constraint
** written by write_node_sets_constraints_displacement function
** FemConstraintDisplacement
*NSET,NSET=FemConstraintDisplacement
5,
6,
7,
8,
2074,
2075,
2076,
2077,
2078,
2079,
2080,
2081,
2082,
2083,
2084,
2085,
2086,
39,
40,
41,
** ... 133 like lines cut
** FemConstraintDisplacement001
*NSET,NSET=FemConstraintDisplacement001
640,
641,
642,
643,
644,
645,
646,
7,
8,
9,
10,
647,
30,
31,
32,
33,
34,
35,
36,
37,
** ... 43 like lines cut
** FemConstraintDisplacement002
*NSET,NSET=FemConstraintDisplacement002
1,
2,
3,
4,
5,
6,
7,
8,
9,
10,
11,
12,
13,
14,
15,
16,
17,
18,
19,
20,
** ... 1994 like lines cut

***********************************************************
** Materials
** written by write_materials function
** Young's modulus unit is MPa = N/mm2
** FreeCAD material name: CalculiX-Steel
** SolidMaterial
*MATERIAL, NAME=SolidMaterial
*ELASTIC
210000, 0.300

***********************************************************
** Sections
** written by write_femelementsets function
*SOLID SECTION, ELSET=SolidMaterialSolid, MATERIAL=SolidMaterial




**manually added design nodes
*Nset, nset=DESIGNNODES
1, 2, 2049, 2050, 2051, 2052, 2053, 2054,
2055, 2056, 2057, 2058, 13, 14, 15, 16,
17, 2059, 2060, 2061, 2062, 2063, 2064,
544, 545, 549, 550, 551, 552, 69, 70,
71, 72, 73, 74, 75, 76, 77, 78,
79, 80, 81, 82, 609, 610, 611, 612,
613, 614, 615, 616, 617, 618, 619, 620,
621, 622, 623, 624, 2167, 2168, 2169,
2170, 2171, 2172, 2173, 2174, 2175, 2176,
2177, 134, 135, 136, 137, 138, 139, 140,
141, 142, 143, 144, 145, 146, 681, 682,
683, 684, 685, 686, 687, 688, 689, 690,
691, 692, 693, 694, 695, 696, 2031, 2032,
2033, 2034, 2035, 2036, 2037, 2038, 2039, 2040,
2042, 2043, 2044
*DESIGNVARIABLES,TYPE=COORDINATE
DESIGNNODES





***********************************************************
** At least one step is needed to run an CalculiX analysis of FreeCAD
** written by write_step_begin function
*STEP
*STATIC


***********************************************************
** Displacement constraint applied
** written by write_constraints_displacement function
** FemConstraintDisplacement
*BOUNDARY
FemConstraintDisplacement,2
** FemConstraintDisplacement001
*BOUNDARY
FemConstraintDisplacement001,1
** FemConstraintDisplacement002
*BOUNDARY
FemConstraintDisplacement002,3


***********************************************************
** Element + CalculiX face + load in [MPa]
** written by write_constraints_pressure function
** FemConstraintPressure
*DLOAD
** FemConstraintPressure: face load
1252,P2,-100.0
1395,P2,-100.0
1768,P1,-100.0
1834,P2,-100.0
2012,P2,-100.0
2331,P4,-100.0
2581,P3,-100.0
2612,P1,-100.0
2644,P2,-100.0
2645,P4,-100.0

***********************************************************
** Outputs --> frd file
** written by write_outputs_types function
*NODE FILE
U
*EL FILE
S

***********************************************************
** written by write_step_end function
*END STEP 

***********************************************************
** CalculiX Input file
** written by write_footer function
**   written by    --> FreeCAD 0.18.15860 (Git)
**   written on    --> Fri Feb 22 07:24:13 2019
**   file name     --> geometry.FCStd
**   analysis name --> Analysis
**
**
**
**   Units
**
**   Geometry (mesh data)        --> mm
**   Materials (Young's modulus) --> N/mm2 = MPa
**   Loads (nodal loads)         --> N
**




**manually added step
*STEP
*SENSITIVITY
*OBJECTIVE
STRESS,DESIGNNODES,10.,200.
*FILTER,TYPE=LINEAR,DIRECTION WEIGHTING=YES
3.
*NODE FILE
SEN
*END STEP